/batch
/config,noeldb,1     ! force off writing results to database
*get,_wallstrt,active,,time,wall
! ANSYS input file written by Workbench version 2024 R1
! File used for geometry attach: C:\Users\fmjam\Documents\coding\playground\pyansis\simple-plate-geometry.scdoc
/title,--Harmonic Response
! ****** Begin Custom Load Command Snippet ******
/COM, ACT Extensions:
/COM,     LSDYNA, 2024.1
/COM,     5f463412-bd3e-484b-87e7-cbc0a665e474, wbex
/COM,/COM,     ANSYSMotion, 2024.1
/COM,     20180725-3f81-49eb-9f31-41364844c769, wbex
/COM,
! ****** End   Custom Load Command Snippet ******
*DIM,_wb_ProjectScratch_dir,string,248
_wb_ProjectScratch_dir(1) = 'c:\Users\fmjam\Documents\coding\playground\pyansis\project_Mech_Files\HarmonicResponse\'
*DIM,_wb_SolverFiles_dir,string,248
_wb_SolverFiles_dir(1) = 'c:\Users\fmjam\Documents\coding\playground\pyansis\project_Mech_Files\HarmonicResponse\'
*DIM,_wb_userfiles_dir,string,248
_wb_userfiles_dir(1) = 'c:\Users\fmjam\Documents\coding\playground\pyansis\project_Mech_Files\UserFiles\'
/com,--- Data in consistent MKS units. See Solving Units in the help system for more information.
/units,MKS
/nopr
/wb,file,start              !  signify a WB generated input file
/prep7
! Turn off shape checking because checks already performed inside WB mesher.
! See help system for more information.
SHPP,OFF,,NOWARN
/nolist
etcon,set             ! allow ANSYS to choose best KEYOP's for 180x elements, resets any applicable keyopt to MAPDL defaults
/com,*********** Nodes for the whole assembly ***********
nblock,3,,2040
(1i9,3e20.9e3)
        1     0.000000000E+00     0.000000000E+00    -3.000000000E+00
        2     1.034482759E-01     0.000000000E+00    -3.000000000E+00
        3     2.068965517E-01     0.000000000E+00    -3.000000000E+00
        4     3.103448276E-01     0.000000000E+00    -3.000000000E+00
        5     4.137931034E-01     0.000000000E+00    -3.000000000E+00
        6     5.172413793E-01     0.000000000E+00    -3.000000000E+00
        7     6.206896552E-01     0.000000000E+00    -3.000000000E+00
        8     7.241379310E-01     0.000000000E+00    -3.000000000E+00
        9     8.275862069E-01     0.000000000E+00    -3.000000000E+00
       10     9.310344828E-01     0.000000000E+00    -3.000000000E+00
       11     1.034482759E+00     0.000000000E+00    -3.000000000E+00
       12     1.137931034E+00     0.000000000E+00    -3.000000000E+00
       13     1.241379310E+00     0.000000000E+00    -3.000000000E+00
       14     1.344827586E+00     0.000000000E+00    -3.000000000E+00
       15     1.448275862E+00     0.000000000E+00    -3.000000000E+00
       16     1.551724138E+00     0.000000000E+00    -3.000000000E+00
       17     1.655172414E+00     0.000000000E+00    -3.000000000E+00
       18     1.758620690E+00     0.000000000E+00    -3.000000000E+00
       19     1.862068966E+00     0.000000000E+00    -3.000000000E+00
       20     1.965517241E+00     0.000000000E+00    -3.000000000E+00
! ... 1836 like lines cut
/wb,elem,start            !  set before creation of elements
/com,*********** Elements for Body 1 "Building\TopFloor\TopFloor" ***********
et,1,181
keyo,1,1,0       ! bending and membrane stiffness
keyo,1,3,2
eblock,19,solid,,845
(19i9)
        1        1        1        1        0        0        0        0        4        0        1     1042     1047     1051     1051
        1        1        1        1        0        0        0        0        4        0        2     1072     1054     1827     1827
        1        1        1        1        0        0        0        0        4        0        3     1827     1080     1669     1072
        1        1        1        1        0        0        0        0        4        0        4     1712     1058     1059     1081
        1        1        1        1        0        0        0        0        4        0        5     1827     1058     1712     1077
        1        1        1        1        0        0        0        0        4        0        6     1827     1077     1092     1080
        1        1        1        1        0        0        0        0        4        0        7     1048     1043     1041     1045
        1        1        1        1        0        0        0        0        4        0        8     1058     1048     1045     1059
        1        1        1        1        0        0        0        0        4        0        9     1054     1048     1058     1827
        1        1        1        1        0        0        0        0        4        0       10     1043     1047     1042     1041
        1        1        1        1        0        0        0        0        4        0       11     1043     1685     1052     1047
        1        1        1        1        0        0        0        0        4        0       12     1041     1042     1044     1046
        1        1        1        1        0        0        0        0        4        0       13     1051     1050     1044     1042
        1        1        1        1        0        0        0        0        4        0       14     1053     1641     1046     1044
        1        1        1        1        0        0        0        0        4        0       15     1043     1048     1054     1685
        1        1        1        1        0        0        0        0        4        0       16     1050     1056     1053     1044
        1        1        1        1        0        0        0        0        4        0       17     1045     1049     1061     1059
        1        1        1        1        0        0        0        0        4        0       18     1641     1055     1049     1046
        1        1        1        1        0        0        0        0        4        0       19     1052     1057     1051     1047
        1        1        1        1        0        0        0        0        4        0       20     1064     1060     1050     1051
! ... 826 like lines cut
!Material Id = {02997AC9-BC02-4F7F-9748-8C348B93E454}
/com,*********** Elements for Body 2 "Building\GroundFloor\GroundFloor" ***********
et,2,181
keyo,2,1,0       ! bending and membrane stiffness
keyo,2,3,2
eblock,19,solid,,841
(19i9)
        2        2        2        2        0        0        0        0        4        0      846      257      259      263      270
        2        2        2        2        0        0        0        0        4        0      847      258      260      259      257
        2        2        2        2        0        0        0        0        4        0      848      268      984      262      258
        2        2        2        2        0        0        0        0        4        0      849      265      264      259      260
        2        2        2        2        0        0        0        0        4        0      850      262      261      260      258
        2        2        2        2        0        0        0        0        4        0      851      264      267      263      259
        2        2        2        2        0        0        0        0        4        0      852      261      266      265      260
        2        2        2        2        0        0        0        0        4        0      853      267      264      272      278
        2        2        2        2        0        0        0        0        4        0      854      984      268      865      274
        2        2        2        2        0        0        0        0        4        0      855      262      866      276      261
        2        2        2        2        0        0        0        0        4        0      856      261      276      980      266
        2        2        2        2        0        0        0        0        4        0      857      984      277      866      262
        2        2        2        2        0        0        0        0        4        0      858      274      282      277      984
        2        2        2        2        0        0        0        0        4        0      859      267      281      966      263
        2        2        2        2        0        0        0        0        4        0      860      265      273      272      264
        2        2        2        2        0        0        0        0        4        0      861      266      275      273      265
        2        2        2        2        0        0        0        0        4        0      862      980      283      275      266
        2        2        2        2        0        0        0        0        4        0      863      278      284      281      267
        2        2        2        2        0        0        0        0        4        0      864      269     1015      865      268
        2        2        2        2        0        0        0        0        4        0      865      271      279     1015      269
! ... 822 like lines cut
!Material Id = {DB94C463-D163-48FB-B7F7-E863D08D4EA9}
/com,*********** Elements for Body 3 "Beam (Rectangle)" ***********
et,3,188
keyo,3,3,2
eblock,19,solid,,7
(19i9)
        3        3        3        3        0        0        0        0        3        0     1687       30      233     1828
        3        3        3        3        0        0        0        0        3        0     1688      233      234     1829
        3        3        3        3        0        0        0        0        3        0     1689      234      235     1830
        3        3        3        3        0        0        0        0        3        0     1690      235      236     1831
        3        3        3        3        0        0        0        0        3        0     1691      236      237     1832
        3        3        3        3        0        0        0        0        3        0     1692      237      238     1833
        3        3        3        3        0        0        0        0        3        0     1693      238      146     1834
-1
!Material Id = {AEEAB666-B0FD-4BA2-8814-1C5296530D77}
/com,*********** Elements for Body 4 "Beam (Rectangle)" ***********
et,4,188
keyo,4,3,2
eblock,19,solid,,7
(19i9)
        4        4        4        4        0        0        0        0        3        0     1694       59      239     1835
        4        4        4        4        0        0        0        0        3        0     1695      239      240     1836
        4        4        4        4        0        0        0        0        3        0     1696      240      241     1837
        4        4        4        4        0        0        0        0        3        0     1697      241      242     1838
        4        4        4        4        0        0        0        0        3        0     1698      242      243     1839
        4        4        4        4        0        0        0        0        3        0     1699      243      244     1840
        4        4        4        4        0        0        0        0        3        0     1700      244      175     1841
-1
!Material Id = {27E81A4B-E92D-4FB9-B111-AB59C6BE6579}
/com,*********** Elements for Body 5 "Beam (Rectangle)" ***********
et,5,188
keyo,5,3,2
eblock,19,solid,,7
(19i9)
        5        5        5        5        0        0        0        0        3        0     1701       88      245     1842
        5        5        5        5        0        0        0        0        3        0     1702      245      246     1843
        5        5        5        5        0        0        0        0        3        0     1703      246      247     1844
        5        5        5        5        0        0        0        0        3        0     1704      247      248     1845
        5        5        5        5        0        0        0        0        3        0     1705      248      249     1846
        5        5        5        5        0        0        0        0        3        0     1706      249      250     1847
        5        5        5        5        0        0        0        0        3        0     1707      250      117     1848
-1
!Material Id = {F9781F20-747D-4002-946A-B76AD5B6841A}
/com,*********** Elements for Body 6 "Beam (Rectangle)" ***********
et,6,188
keyo,6,3,2
eblock,19,solid,,7
(19i9)
        6        6        6        6        0        0        0        0        3        0     1708        1      251     1849
        6        6        6        6        0        0        0        0        3        0     1709      251      252     1850
        6        6        6        6        0        0        0        0        3        0     1710      252      253     1851
        6        6        6        6        0        0        0        0        3        0     1711      253      254     1852
        6        6        6        6        0        0        0        0        3        0     1712      254      255     1853
        6        6        6        6        0        0        0        0        3        0     1713      255      256     1854
        6        6        6        6        0        0        0        0        3        0     1714      256      204     1855
-1
!Material Id = {1FB1F3B0-A8DC-4A76-A580-243C8EB175FD}
/wb,elem,end               !  done creating elements
/com,*********** Send User Defined Coordinate System(s) ***********
csys,0
toffst,273.15,  ! Temperature offset from absolute zero
/com,*********** Set Reference Temperature ***********
tref,22.
/wb,mat,start              !  starting to send materials
/com,*********** Send Materials ***********
MP,DENS,1,7850,	! kg m^-3
MP,ALPX,1,1.2e-05,	! C^-1
MP,C,1,434,	! J kg^-1 C^-1
MP,KXX,1,60.5,	! W m^-1 C^-1
MP,RSVX,1,1.7e-07,	! kg m^3 A^-2 s^-3
MP,EX,1,200000000000,	! Pa
MP,NUXY,1,0.3,
MP,MURX,1,10000,
MP,UVID,1,bf8f2309-4b08-4fdd-9793-cca04c6727a9
MP,UMID,1,59002a79-71c2-428e-906b-55d7dbee100e

MP,DENS,2,7850,	! kg m^-3
MP,ALPX,2,1.2e-05,	! C^-1
MP,C,2,434,	! J kg^-1 C^-1
MP,KXX,2,60.5,	! W m^-1 C^-1
MP,RSVX,2,1.7e-07,	! kg m^3 A^-2 s^-3
MP,EX,2,200000000000,	! Pa
MP,NUXY,2,0.3,
MP,MURX,2,10000,
MP,UVID,2,bf8f2309-4b08-4fdd-9793-cca04c6727a9
MP,UMID,2,59002a79-71c2-428e-906b-55d7dbee100e

MP,DENS,3,7850,	! kg m^-3
MP,ALPX,3,1.2e-05,	! C^-1
MP,C,3,434,	! J kg^-1 C^-1
MP,KXX,3,60.5,	! W m^-1 C^-1
MP,RSVX,3,1.7e-07,	! kg m^3 A^-2 s^-3
MP,EX,3,200000000000,	! Pa
MP,NUXY,3,0.3,
MP,MURX,3,10000,
MP,UVID,3,bf8f2309-4b08-4fdd-9793-cca04c6727a9
MP,UMID,3,59002a79-71c2-428e-906b-55d7dbee100e

MP,DENS,4,7850,	! kg m^-3
MP,ALPX,4,1.2e-05,	! C^-1
MP,C,4,434,	! J kg^-1 C^-1
MP,KXX,4,60.5,	! W m^-1 C^-1
MP,RSVX,4,1.7e-07,	! kg m^3 A^-2 s^-3
MP,EX,4,200000000000,	! Pa
MP,NUXY,4,0.3,
MP,MURX,4,10000,
MP,UVID,4,bf8f2309-4b08-4fdd-9793-cca04c6727a9
MP,UMID,4,59002a79-71c2-428e-906b-55d7dbee100e

MP,DENS,5,7850,	! kg m^-3
MP,ALPX,5,1.2e-05,	! C^-1
MP,C,5,434,	! J kg^-1 C^-1
MP,KXX,5,60.5,	! W m^-1 C^-1
MP,RSVX,5,1.7e-07,	! kg m^3 A^-2 s^-3
MP,EX,5,200000000000,	! Pa
MP,NUXY,5,0.3,
MP,MURX,5,10000,
MP,UVID,5,bf8f2309-4b08-4fdd-9793-cca04c6727a9
MP,UMID,5,59002a79-71c2-428e-906b-55d7dbee100e

MP,DENS,6,7850,	! kg m^-3
MP,ALPX,6,1.2e-05,	! C^-1
MP,C,6,434,	! J kg^-1 C^-1
MP,KXX,6,60.5,	! W m^-1 C^-1
MP,RSVX,6,1.7e-07,	! kg m^3 A^-2 s^-3
MP,EX,6,200000000000,	! Pa
MP,NUXY,6,0.3,
MP,MURX,6,10000,
MP,UVID,6,bf8f2309-4b08-4fdd-9793-cca04c6727a9
MP,UMID,6,59002a79-71c2-428e-906b-55d7dbee100e

/wb,mat,end                !  done sending materials
/com,*********** Send Sheet Properties ***********
sectype,1,shell
secdata,0.2
secoff,mid

sectype,2,shell
secdata,0.2
secoff,mid

/com,*********** Send Beam Properties ***********
SECTYPE,3,BEAM,RECT
SECDATA,1.e-002,1.e-002
secoffset,cent

SECTYPE,4,BEAM,RECT
SECDATA,1.e-002,1.e-002
secoffset,cent

SECTYPE,5,BEAM,RECT
SECDATA,1.e-002,1.e-002
secoffset,cent

SECTYPE,6,BEAM,RECT
SECDATA,1.e-002,1.e-002
secoffset,cent

!************************* Model Summary ********************
!Building\TopFloor\TopFloor,	Structural Steel 2,	matid,	1
!Building\GroundFloor\GroundFloor,	Structural Steel 2,	matid,	2
!Beam (Rectangle),	Structural Steel 2,	matid,	3
!Beam (Rectangle),	Structural Steel 2,	matid,	4
!Beam (Rectangle),	Structural Steel 2,	matid,	5
!Beam (Rectangle),	Structural Steel 2,	matid,	6
!************************* End Model Summary ********************
! get the diagonal of the bounding box. Needed later for other things
*get,_xmin,node,,mnloc,x
*get,_ymin,node,,mnloc,y
*get,_zmin,node,,mnloc,z
*get,_xmax,node,,mxloc,x
*get,_ymax,node,,mxloc,y
*get,_zmax,node,,mxloc,z
_ASMDIAG=(_xmax-_xmin)*(_xmax-_xmin)+(_ymax-_ymin)*(_ymax-_ymin)+(_zmax-_zmin)*(_zmax-_zmin)
_ASMDIAG=SQRT(_ASMDIAG)
/wb,contact,start          !  starting to send contact
/wb,contact,end            !  done creating contacts
/com,*********** Send Named Selection as Node Component ***********
CMBLOCK,TOPFLOOR,NODE,      903
(8i10)
       117       118       119       120       121       122       123       124
       125       126       127       128       129       130       131       132
       133       134       135       136       137       138       139       140
       141       142       143       144       145       146       147       148
       149       150       151       152       153       154       155       156
       157       158       159       160       161       162       163       164
       165       166       167       168       169       170       171       172
       173       174       175       176       177       178       179       180
       181       182       183       184       185       186       187       188
       189       190       191       192       193       194       195       196
       197       198       199       200       201       202       203       204
       205       206       207       208       209       210       211       212
       213       214       215       216       217       218       219       220
       221       222       223       224       225       226       227       228
       229       230       231       232      1041      1042      1043      1044
      1045      1046      1047      1048      1049      1050      1051      1052
      1053      1054      1055      1056      1057      1058      1059      1060
      1061      1062      1063      1064      1065      1066      1067      1068
      1069      1070      1071      1072      1073      1074      1075      1076
      1077      1078      1079      1080      1081      1082      1083      1084
! ... 93 like lines cut
/golist
/wb,load,start             !  starting to send loads
/com,*********** Define Force Using Surface Effect Elements ***********
local,12,0,0.,0.,0.,0.,0.,0.
csys,0
et,7,154
mat,7
eblock,10,,,841
(15i9)
     1715        7        7        7       12      257      259      263      270
     1716        7        7        7       12      258      260      259      257
     1717        7        7        7       12      268      984      262      258
     1718        7        7        7       12      265      264      259      260
     1719        7        7        7       12      262      261      260      258
     1720        7        7        7       12      264      267      263      259
     1721        7        7        7       12      261      266      265      260
     1722        7        7        7       12      267      264      272      278
     1723        7        7        7       12      984      268      865      274
     1724        7        7        7       12      262      866      276      261
     1725        7        7        7       12      261      276      980      266
     1726        7        7        7       12      984      277      866      262
     1727        7        7        7       12      274      282      277      984
     1728        7        7        7       12      267      281      966      263
     1729        7        7        7       12      265      273      272      264
     1730        7        7        7       12      266      275      273      265
     1731        7        7        7       12      980      283      275      266
     1732        7        7        7       12      278      284      281      267
     1733        7        7        7       12      269     1015      865      268
     1734        7        7        7       12      271      279     1015      269
! ... 822 like lines cut
esel,s,type,,7
keyop,7,2,1                ! Apply load in local coordinate system
keyop,7,7,1                ! Use original area so load is constant in large deformation
esel,all

*DIM,_loadvari50x,TABLE,1,1,1,FREQ, , , 0
! Frequency values
*TAXIS,_loadvari50x(1),1,1.
! Load values
_loadvari50x(1,1,1) = 0.



*DIM,_loadvari50xi,TABLE,1,1,1,FREQ, , , 0
! Frequency values
*TAXIS,_loadvari50xi(1),1,1.
! Load values
_loadvari50xi(1,1,1) = 0.



*DIM,_loadvari50y,TABLE,1,1,1,FREQ, , , 0
! Frequency values
*TAXIS,_loadvari50y(1),1,1.
! Load values
_loadvari50y(1,1,1) = 111.111111111111



*DIM,_loadvari50yi,TABLE,1,1,1,FREQ, , , 0
! Frequency values
*TAXIS,_loadvari50yi(1),1,1.
! Load values
_loadvari50yi(1,1,1) = 0.



*DIM,_loadvari50z,TABLE,1,1,1,FREQ, , , 0
! Frequency values
*TAXIS,_loadvari50z(1),1,1.
! Load values
_loadvari50z(1,1,1) = 0.



*DIM,_loadvari50zi,TABLE,1,1,1,FREQ, , , 0
! Frequency values
*TAXIS,_loadvari50zi(1),1,1.
! Load values
_loadvari50zi(1,1,1) = 0.


/gst,on,on
fini
*get,_numnode,node,0,count
*get,_numelem,elem,0,count
*get, _MAXELEMNUM, elem, 0, NUM, MAX
*get, _MAXNODENUM, node, 0, NUM, MAX
*get, _MAXELEMTYPE, etyp, 0, NUM, MAX
*get, _MAXREALCONST, rcon, 0, NUM, MAX
/go
/wb,load,end               !  done creating loads
/com,--- Number of total nodes = %_numnode%
/com,--- Number of contact elements = 841
/com,--- Number of spring elements = 0
/com,--- Number of bearing elements = 0
/com,--- Number of solid elements = 1714
/com,--- Number of condensed parts = 0
/com,--- Number of total elements = %_numelem%
*get,_wallbsol,active,,time,wall
/com,*********** Performing Modal Solve ***********
/solu
antype,2
modcontrol,on
thexpand,off     ! ignore thermal strains
mxpand,,,,yes,,no     ! expand element results for stress/strains, but not write them to file.mode
outres,erase
outres,all,none
outres,nsol,all
outres,eangl,all
outres,veng,all
outres,strs,all,
outres,epel,all,
outres,rsol,all
outres,cont,all,
/nopr
esel,s,type,,3
esel,a,type,,4,6
cm,_elmisc,elem
esel,all
/gopr
outres,misc,all,_elmisc
modopt,lanb,200,250.,2000.
fdele,all,all
sfdele,all,all
sfedele,all,all,all
acel,0,0,0                 ! zero out the acceleration
/com,*********** Setting and Solving Each Load Step ***********
esel,s,type,,7
nsle
sfe,all,2,pres,1,1
nsel,all
esel,all
solve
/com,**********************
/com *************** Write FE CONNECTORS ********* 
CEWRITE,file,ce,,INTE
fini
*get,_wallasol,active,,time,wall
/com,*********** Performing MSUP Harmonic Solve ***********
/solu
antype,harm
hropt,msup
thexpand,off     ! ignore thermal strains
hrout,off
kbc,1
*DIM,_harmUserForcingFreqSteps,,1
_harmUserForcingFreqSteps(1) = 500
harfrq,500,1000,,,%_harmUserForcingFreqSteps%
nsub,5
fdele,all,all
sfdele,all,all
sfedele,all,all,all
acel,0,0,0                 ! zero out the acceleration
lvscale,0,1
/com,*********** Scaling Each Load Step for MSUP Solve ***********
lvscale,%_loadvari50y%,1
! *********** WB SOLVE COMMAND ***********
! check interactive state
*get,ANSINTER_,active,,int
*if,ANSINTER_,ne,0,then
/eof
*endif
solve

fini
*get,_wallasol,active,,time,wall
! ------- MSUP EXPANSION PASS -------
/solu
expass,on
hrexp,all
outres,erase
outres,all,none
outres,nsol,all
outres,eangl,all
outres,veng,all
outres,strs,all,
outres,epel,all,
outres,rsol,all
outres,cont,all,
outres,misc,all,_elmisc
numexp,all,,,yes        ! expand results at all freq. and calculate requested result items
! *********** WB SOLVE COMMAND ***********
! check interactive state
*get,ANSINTER_,active,,int
*if,ANSINTER_,ne,0,then
/eof
*endif
solve
/com *************** Write FE CONNECTORS ********* 
CEWRITE,file,ce,,INTE
fini
/post1
xmlo,ENCODING,ISO-8859-1
xmlo,parm
/xml,parm,xml
fini
/gopr
*get,_walldone,active,,time,wall
_preptime=(_wallbsol-_wallstrt)*3600
_solvtime=(_wallasol-_wallbsol)*3600
_posttime=(_walldone-_wallasol)*3600
_totaltim=(_walldone-_wallstrt)*3600
*get,_dlbratio,active,0,solu,dlbr
*get,_combtime,active,0,solu,comb
*get,_ssmode,active,0,solu,ssmm
*get,_ndofs,active,0,solu,ndof
/fclean				!clean distributed files
/com,--- Total number of nodes = %_numnode%
/com,--- Total number of elements = %_numelem%
/com,--- Element load balance ratio = %_dlbratio%
/com,--- Time to combine distributed files = %_combtime%
/com,--- Sparse memory mode = %_ssmode%
/com,--- Number of DOF = %_ndofs%
/wb,file,end               ! done with WB generated input
